<?xml version="1.0" encoding="UTF-8"?>

<!-- generated on 30.04.2019 12:04:02 by Netedit Version 0.32.1
<configuration xmlns:xsi="http://www.w3.org/2001/XMLSchema-instance" xsi:noNamespaceSchemaLocation="http://sumo.dlr.de/xsd/netconvertConfiguration.xsd">

    <input>
        <sumo-net-file value="G:\Projekte\sumo_trans\Circle\circles.net.xml"/>
    </input>

    <output>
        <output-file value="D:\Projekte\Abschlussarbeiten\Berhan%20Han\Circle\circles.net.xml"/>
    </output>

    <processing>
        <no-turnarounds value="true"/>
        <offset.disable-normalization value="true"/>
        <lefthand value="false"/>
        <junctions.corner-detail value="0"/>
        <rectangular-lane-cut value="false"/>
        <walkingareas value="false"/>
    </processing>

</configuration>
-->

<net version="0.27" xmlns:xsi="http://www.w3.org/2001/XMLSchema-instance" xsi:noNamespaceSchemaLocation="http://sumo.dlr.de/xsd/net_file.xsd">

    <location netOffset="0.00,0.00" convBoundary="-1707.00,-1707.00,1707.00,1707.00" origBoundary="-10000000000.00,-10000000000.00,10000000000.00,10000000000.00" projParameter="!"/>

    <edge id=":gneJ0_0" function="internal">
        <lane id=":gneJ0_0_0" index="0" speed="13.89" friction="1.00" length="0.10" shape="-1698.75,0.00 -1698.75,0.00"/>
        <lane id=":gneJ0_0_1" index="1" speed="13.89" friction="1.00" length="0.10" shape="-1702.05,0.00 -1702.05,0.00"/>
        <lane id=":gneJ0_0_2" index="2" speed="13.89" friction="1.00" length="0.10" shape="-1705.35,0.00 -1705.35,0.00"/>
    </edge>
    <edge id=":gneJ1_0" function="internal">
        <lane id=":gneJ1_0_0" index="0" speed="13.89" friction="1.00" length="1.26" shape="995.92,1698.75 996.24,1698.72 996.53,1698.63 996.80,1698.49 997.05,1698.28"/>
    </edge>
    <edge id=":gneJ1_1" function="internal">
        <lane id=":gneJ1_1_0" index="0" speed="13.89" friction="1.00" length="3.85" shape="995.92,1702.05 996.90,1701.96 997.80,1701.69 998.63,1701.24 999.38,1700.61"/>
    </edge>
    <edge id=":gneJ1_2" function="internal">
        <lane id=":gneJ1_2_0" index="0" speed="13.89" friction="1.00" length="6.44" shape="995.92,1705.35 997.56,1705.20 999.07,1704.75 1000.46,1704.00 1001.72,1702.95"/>
    </edge>
    <edge id=":gneJ10_0" function="internal">
        <lane id=":gneJ10_0_0" index="0" speed="13.89" friction="1.00" length="0.10" shape="0.00,1698.75 0.00,1698.75"/>
        <lane id=":gneJ10_0_1" index="1" speed="13.89" friction="1.00" length="0.10" shape="0.00,1702.05 0.00,1702.05"/>
        <lane id=":gneJ10_0_2" index="2" speed="13.89" friction="1.00" length="0.10" shape="0.00,1705.35 0.00,1705.35"/>
    </edge>
    <edge id=":gneJ11_0" function="internal">
        <lane id=":gneJ11_0_0" index="0" speed="13.89" friction="1.00" length="1.26" shape="-1698.75,995.92 -1698.72,996.24 -1698.64,996.53 -1698.49,996.80 -1698.28,997.05"/>
    </edge>
    <edge id=":gneJ11_1" function="internal">
        <lane id=":gneJ11_1_0" index="0" speed="13.89" friction="1.00" length="3.85" shape="-1702.05,995.92 -1701.96,996.90 -1701.69,997.80 -1701.25,998.63 -1700.62,999.38"/>
    </edge>
    <edge id=":gneJ11_2" function="internal">
        <lane id=":gneJ11_2_0" index="0" speed="13.89" friction="1.00" length="6.44" shape="-1705.35,995.92 -1705.20,997.55 -1704.75,999.07 -1704.00,1000.45 -1702.95,1001.72"/>
    </edge>
    <edge id=":gneJ12_0" function="internal">
        <lane id=":gneJ12_0_0" index="0" speed="13.89" friction="1.00" length="1.28" shape="-997.06,1698.28 -996.78,1698.53 -996.56,1698.67 -996.30,1698.73 -995.92,1698.75"/>
    </edge>
    <edge id=":gneJ12_1" function="internal">
        <lane id=":gneJ12_1_0" index="0" speed="13.89" friction="1.00" length="3.92" shape="-999.39,1700.61 -998.55,1701.39 -997.86,1701.83 -997.07,1702.01 -995.92,1702.05"/>
    </edge>
    <edge id=":gneJ12_2" function="internal">
        <lane id=":gneJ12_2_0" index="0" speed="13.89" friction="1.00" length="6.56" shape="-1001.72,1702.94 -1000.32,1704.26 -999.17,1704.98 -997.84,1705.28 -995.92,1705.35"/>
    </edge>
    <edge id=":gneJ2_0" function="internal">
        <lane id=":gneJ2_0_0" index="0" speed="13.89" friction="1.00" length="1.26" shape="1698.28,997.05 1698.49,996.80 1698.63,996.53 1698.72,996.24 1698.75,995.92"/>
    </edge>
    <edge id=":gneJ2_1" function="internal">
        <lane id=":gneJ2_1_0" index="0" speed="13.89" friction="1.00" length="3.85" shape="1700.61,999.38 1701.24,998.63 1701.69,997.80 1701.96,996.90 1702.05,995.92"/>
    </edge>
    <edge id=":gneJ2_2" function="internal">
        <lane id=":gneJ2_2_0" index="0" speed="13.89" friction="1.00" length="6.44" shape="1702.95,1001.72 1704.00,1000.46 1704.75,999.07 1705.20,997.56 1705.35,995.92"/>
    </edge>
    <edge id=":gneJ3_0" function="internal">
        <lane id=":gneJ3_0_0" index="0" speed="13.89" friction="1.00" length="0.10" shape="1698.75,0.00 1698.75,0.00"/>
        <lane id=":gneJ3_0_1" index="1" speed="13.89" friction="1.00" length="0.10" shape="1702.05,0.00 1702.05,0.00"/>
        <lane id=":gneJ3_0_2" index="2" speed="13.89" friction="1.00" length="0.10" shape="1705.35,0.00 1705.35,0.00"/>
    </edge>
    <edge id=":gneJ4_0" function="internal">
        <lane id=":gneJ4_0_0" index="0" speed="13.89" friction="1.00" length="1.26" shape="1698.75,-995.92 1698.72,-996.24 1698.63,-996.53 1698.49,-996.80 1698.28,-997.05"/>
    </edge>
    <edge id=":gneJ4_1" function="internal">
        <lane id=":gneJ4_1_0" index="0" speed="13.89" friction="1.00" length="3.85" shape="1702.05,-995.92 1701.96,-996.90 1701.69,-997.80 1701.24,-998.63 1700.61,-999.38"/>
    </edge>
    <edge id=":gneJ4_2" function="internal">
        <lane id=":gneJ4_2_0" index="0" speed="13.89" friction="1.00" length="6.44" shape="1705.35,-995.92 1705.20,-997.56 1704.75,-999.07 1704.00,-1000.46 1702.95,-1001.72"/>
    </edge>
    <edge id=":gneJ6_0" function="internal">
        <lane id=":gneJ6_0_0" index="0" speed="13.89" friction="1.00" length="1.26" shape="997.05,-1698.28 996.80,-1698.49 996.53,-1698.63 996.24,-1698.72 995.92,-1698.75"/>
    </edge>
    <edge id=":gneJ6_1" function="internal">
        <lane id=":gneJ6_1_0" index="0" speed="13.89" friction="1.00" length="3.85" shape="999.38,-1700.61 998.63,-1701.24 997.80,-1701.69 996.90,-1701.96 995.92,-1702.05"/>
    </edge>
    <edge id=":gneJ6_2" function="internal">
        <lane id=":gneJ6_2_0" index="0" speed="13.89" friction="1.00" length="6.44" shape="1001.72,-1702.95 1000.46,-1704.00 999.07,-1704.75 997.56,-1705.20 995.92,-1705.35"/>
    </edge>
    <edge id=":gneJ7_0" function="internal">
        <lane id=":gneJ7_0_0" index="0" speed="13.89" friction="1.00" length="0.10" shape="0.00,-1698.75 0.00,-1698.75"/>
        <lane id=":gneJ7_0_1" index="1" speed="13.89" friction="1.00" length="0.10" shape="0.00,-1702.05 0.00,-1702.05"/>
        <lane id=":gneJ7_0_2" index="2" speed="13.89" friction="1.00" length="0.10" shape="0.00,-1705.35 0.00,-1705.35"/>
    </edge>
    <edge id=":gneJ8_0" function="internal">
        <lane id=":gneJ8_0_0" index="0" speed="13.89" friction="1.00" length="1.26" shape="-995.92,-1698.75 -996.24,-1698.72 -996.53,-1698.63 -996.80,-1698.49 -997.05,-1698.28"/>
    </edge>
    <edge id=":gneJ8_1" function="internal">
        <lane id=":gneJ8_1_0" index="0" speed="13.89" friction="1.00" length="3.85" shape="-995.92,-1702.05 -996.90,-1701.96 -997.80,-1701.69 -998.63,-1701.24 -999.38,-1700.61"/>
    </edge>
    <edge id=":gneJ8_2" function="internal">
        <lane id=":gneJ8_2_0" index="0" speed="13.89" friction="1.00" length="6.44" shape="-995.92,-1705.35 -997.56,-1705.20 -999.07,-1704.75 -1000.46,-1704.00 -1001.72,-1702.95"/>
    </edge>
    <edge id=":gneJ9_0" function="internal">
        <lane id=":gneJ9_0_0" index="0" speed="13.89" friction="1.00" length="1.26" shape="-1698.28,-997.05 -1698.49,-996.80 -1698.63,-996.53 -1698.72,-996.24 -1698.75,-995.92"/>
    </edge>
    <edge id=":gneJ9_1" function="internal">
        <lane id=":gneJ9_1_0" index="0" speed="13.89" friction="1.00" length="3.85" shape="-1700.61,-999.38 -1701.24,-998.63 -1701.69,-997.80 -1701.96,-996.90 -1702.05,-995.92"/>
    </edge>
    <edge id=":gneJ9_2" function="internal">
        <lane id=":gneJ9_2_0" index="0" speed="13.89" friction="1.00" length="6.44" shape="-1702.95,-1001.72 -1704.00,-1000.46 -1704.75,-999.07 -1705.20,-997.56 -1705.35,-995.92"/>
    </edge>

    <edge id="edge1" from="gneJ0" to="gneJ11" priority="1" shape="-1707.00,0.00 -1707.00,1000.00">
        <lane id="edge1_0" index="0" speed="13.89" friction="1.00" length="995.92" shape="-1698.75,0.00 -1698.75,995.92"/>
        <lane id="edge1_1" index="1" speed="13.89" friction="1.00" length="995.92" shape="-1702.05,0.00 -1702.05,995.92"/>
        <lane id="edge1_2" index="2" speed="13.89" friction="1.00" length="995.92" shape="-1705.35,0.00 -1705.35,995.92"/>
    </edge>
    <edge id="edge1.1059" from="gneJ12" to="gneJ10" priority="1" shape="-1000.00,1707.00 0.00,1707.00">
        <lane id="edge1.1059_0" index="0" speed="13.89" friction="1.00" length="995.92" shape="-995.92,1698.75 0.00,1698.75"/>
        <lane id="edge1.1059_1" index="1" speed="13.89" friction="1.00" length="995.92" shape="-995.92,1702.05 0.00,1702.05"/>
        <lane id="edge1.1059_2" index="2" speed="13.89" friction="1.00" length="995.92" shape="-995.92,1705.35 0.00,1705.35"/>
    </edge>
    <edge id="edge1.666" from="gneJ11" to="gneJ12" priority="1" shape="-1707.00,1000.00 -1000.00,1707.00">
        <lane id="edge1.666_0" index="0" speed="13.89" friction="1.00" length="991.69" shape="-1698.28,997.05 -997.06,1698.28"/>
        <lane id="edge1.666_1" index="1" speed="13.89" friction="1.00" length="991.69" shape="-1700.62,999.38 -999.39,1700.61"/>
        <lane id="edge1.666_2" index="2" speed="13.89" friction="1.00" length="991.69" shape="-1702.95,1001.72 -1001.72,1702.94"/>
    </edge>
    <edge id="edge1.93" from="gneJ10" to="gneJ1" priority="1" shape="0.00,1707.00 1000.00,1707.00">
        <lane id="edge1.93_0" index="0" speed="13.89" friction="1.00" length="995.92" shape="0.00,1698.75 995.92,1698.75"/>
        <lane id="edge1.93_1" index="1" speed="13.89" friction="1.00" length="995.92" shape="0.00,1702.05 995.92,1702.05"/>
        <lane id="edge1.93_2" index="2" speed="13.89" friction="1.00" length="995.92" shape="0.00,1705.35 995.92,1705.35"/>
    </edge>
    <edge id="edge2" from="gneJ6" to="gneJ7" priority="1">
        <lane id="edge2_0" index="0" speed="13.89" friction="1.00" length="995.92" shape="995.92,-1698.75 0.00,-1698.75"/>
        <lane id="edge2_1" index="1" speed="13.89" friction="1.00" length="995.92" shape="995.92,-1702.05 0.00,-1702.05"/>
        <lane id="edge2_2" index="2" speed="13.89" friction="1.00" length="995.92" shape="995.92,-1705.35 0.00,-1705.35"/>
    </edge>
    <edge id="gneE1" from="gneJ1" to="gneJ2" priority="1">
        <lane id="gneE1_0" index="0" speed="13.89" friction="1.00" length="991.69" shape="997.05,1698.28 1698.28,997.05"/>
        <lane id="gneE1_1" index="1" speed="13.89" friction="1.00" length="991.69" shape="999.38,1700.61 1700.61,999.38"/>
        <lane id="gneE1_2" index="2" speed="13.89" friction="1.00" length="991.69" shape="1001.72,1702.95 1702.95,1001.72"/>
    </edge>
    <edge id="gneE2" from="gneJ2" to="gneJ3" priority="1">
        <lane id="gneE2_0" index="0" speed="13.89" friction="1.00" length="995.92" shape="1698.75,995.92 1698.75,0.00"/>
        <lane id="gneE2_1" index="1" speed="13.89" friction="1.00" length="995.92" shape="1702.05,995.92 1702.05,0.00"/>
        <lane id="gneE2_2" index="2" speed="13.89" friction="1.00" length="995.92" shape="1705.35,995.92 1705.35,0.00"/>
    </edge>
    <edge id="gneE3" from="gneJ3" to="gneJ4" priority="1">
        <lane id="gneE3_0" index="0" speed="13.89" friction="1.00" length="995.92" shape="1698.75,0.00 1698.75,-995.92"/>
        <lane id="gneE3_1" index="1" speed="13.89" friction="1.00" length="995.92" shape="1702.05,0.00 1702.05,-995.92"/>
        <lane id="gneE3_2" index="2" speed="13.89" friction="1.00" length="995.92" shape="1705.35,0.00 1705.35,-995.92"/>
    </edge>
    <edge id="gneE5" from="gneJ4" to="gneJ6" priority="1">
        <lane id="gneE5_0" index="0" speed="13.89" friction="1.00" length="991.69" shape="1698.28,-997.05 997.05,-1698.28"/>
        <lane id="gneE5_1" index="1" speed="13.89" friction="1.00" length="991.69" shape="1700.61,-999.38 999.38,-1700.61"/>
        <lane id="gneE5_2" index="2" speed="13.89" friction="1.00" length="991.69" shape="1702.95,-1001.72 1001.72,-1702.95"/>
    </edge>
    <edge id="gneE7" from="gneJ7" to="gneJ8" priority="1">
        <lane id="gneE7_0" index="0" speed="13.89" friction="1.00" length="995.92" shape="0.00,-1698.75 -995.92,-1698.75"/>
        <lane id="gneE7_1" index="1" speed="13.89" friction="1.00" length="995.92" shape="0.00,-1702.05 -995.92,-1702.05"/>
        <lane id="gneE7_2" index="2" speed="13.89" friction="1.00" length="995.92" shape="0.00,-1705.35 -995.92,-1705.35"/>
    </edge>
    <edge id="gneE8" from="gneJ8" to="gneJ9" priority="1">
        <lane id="gneE8_0" index="0" speed="13.89" friction="1.00" length="991.69" shape="-997.05,-1698.28 -1698.28,-997.05"/>
        <lane id="gneE8_1" index="1" speed="13.89" friction="1.00" length="991.69" shape="-999.38,-1700.61 -1700.61,-999.38"/>
        <lane id="gneE8_2" index="2" speed="13.89" friction="1.00" length="991.69" shape="-1001.72,-1702.95 -1702.95,-1001.72"/>
    </edge>
    <edge id="gneE9" from="gneJ9" to="gneJ0" priority="1">
        <lane id="gneE9_0" index="0" speed="13.89" friction="1.00" length="995.92" shape="-1698.75,-995.92 -1698.75,0.00"/>
        <lane id="gneE9_1" index="1" speed="13.89" friction="1.00" length="995.92" shape="-1702.05,-995.92 -1702.05,0.00"/>
        <lane id="gneE9_2" index="2" speed="13.89" friction="1.00" length="995.92" shape="-1705.35,-995.92 -1705.35,0.00"/>
    </edge>

    <junction id="gneJ0" type="priority" x="-1707.00" y="0.00" incLanes="gneE9_0 gneE9_1 gneE9_2" intLanes=":gneJ0_0_0 :gneJ0_0_1 :gneJ0_0_2" shape="-1706.95,0.00 -1697.15,0.00 -1706.95,-0.00">
        <request index="0" response="000" foes="000" cont="0"/>
        <request index="1" response="000" foes="000" cont="0"/>
        <request index="2" response="000" foes="000" cont="0"/>
    </junction>
    <junction id="gneJ1" type="priority" x="1000.00" y="1707.00" incLanes="edge1.93_0 edge1.93_1 edge1.93_2" intLanes=":gneJ1_0_0 :gneJ1_1_0 :gneJ1_2_0" shape="1002.85,1704.08 995.92,1697.15 995.92,1706.95">
        <request index="0" response="000" foes="000" cont="0"/>
        <request index="1" response="000" foes="000" cont="0"/>
        <request index="2" response="000" foes="000" cont="0"/>
    </junction>
    <junction id="gneJ10" type="priority" x="0.00" y="1707.00" incLanes="edge1.1059_0 edge1.1059_1 edge1.1059_2" intLanes=":gneJ10_0_0 :gneJ10_0_1 :gneJ10_0_2" shape="0.00,1706.95 0.00,1697.15 0.00,1706.95">
        <request index="0" response="000" foes="000" cont="0"/>
        <request index="1" response="000" foes="000" cont="0"/>
        <request index="2" response="000" foes="000" cont="0"/>
    </junction>
    <junction id="gneJ11" type="priority" x="-1707.00" y="1000.00" incLanes="edge1_0 edge1_1 edge1_2" intLanes=":gneJ11_0_0 :gneJ11_1_0 :gneJ11_2_0" shape="-1704.08,1002.85 -1697.15,995.92 -1706.95,995.92">
        <request index="0" response="000" foes="000" cont="0"/>
        <request index="1" response="000" foes="000" cont="0"/>
        <request index="2" response="000" foes="000" cont="0"/>
    </junction>
    <junction id="gneJ12" type="priority" x="-1000.00" y="1707.00" incLanes="edge1.666_0 edge1.666_1 edge1.666_2" intLanes=":gneJ12_0_0 :gneJ12_1_0 :gneJ12_2_0" shape="-995.92,1706.95 -995.92,1697.15 -1002.85,1704.08">
        <request index="0" response="000" foes="000" cont="0"/>
        <request index="1" response="000" foes="000" cont="0"/>
        <request index="2" response="000" foes="000" cont="0"/>
    </junction>
    <junction id="gneJ2" type="priority" x="1707.00" y="1000.00" incLanes="gneE1_0 gneE1_1 gneE1_2" intLanes=":gneJ2_0_0 :gneJ2_1_0 :gneJ2_2_0" shape="1706.95,995.92 1697.15,995.92 1704.08,1002.85">
        <request index="0" response="000" foes="000" cont="0"/>
        <request index="1" response="000" foes="000" cont="0"/>
        <request index="2" response="000" foes="000" cont="0"/>
    </junction>
    <junction id="gneJ3" type="priority" x="1707.00" y="0.00" incLanes="gneE2_0 gneE2_1 gneE2_2" intLanes=":gneJ3_0_0 :gneJ3_0_1 :gneJ3_0_2" shape="1697.15,0.00 1706.95,0.00 1697.15,0.00">
        <request index="0" response="000" foes="000" cont="0"/>
        <request index="1" response="000" foes="000" cont="0"/>
        <request index="2" response="000" foes="000" cont="0"/>
    </junction>
    <junction id="gneJ4" type="priority" x="1707.00" y="-1000.00" incLanes="gneE3_0 gneE3_1 gneE3_2" intLanes=":gneJ4_0_0 :gneJ4_1_0 :gneJ4_2_0" shape="1697.15,-995.92 1706.95,-995.92 1704.08,-1002.85">
        <request index="0" response="000" foes="000" cont="0"/>
        <request index="1" response="000" foes="000" cont="0"/>
        <request index="2" response="000" foes="000" cont="0"/>
    </junction>
    <junction id="gneJ6" type="priority" x="1000.00" y="-1707.00" incLanes="gneE5_0 gneE5_1 gneE5_2" intLanes=":gneJ6_0_0 :gneJ6_1_0 :gneJ6_2_0" shape="995.92,-1697.15 1002.85,-1704.08 995.92,-1706.95">
        <request index="0" response="000" foes="000" cont="0"/>
        <request index="1" response="000" foes="000" cont="0"/>
        <request index="2" response="000" foes="000" cont="0"/>
    </junction>
    <junction id="gneJ7" type="priority" x="0.00" y="-1707.00" incLanes="edge2_0 edge2_1 edge2_2" intLanes=":gneJ7_0_0 :gneJ7_0_1 :gneJ7_0_2" shape="0.00,-1697.15 0.00,-1706.95 0.00,-1697.15">
        <request index="0" response="000" foes="000" cont="0"/>
        <request index="1" response="000" foes="000" cont="0"/>
        <request index="2" response="000" foes="000" cont="0"/>
    </junction>
    <junction id="gneJ8" type="priority" x="-1000.00" y="-1707.00" incLanes="gneE7_0 gneE7_1 gneE7_2" intLanes=":gneJ8_0_0 :gneJ8_1_0 :gneJ8_2_0" shape="-995.92,-1697.15 -995.92,-1706.95 -1002.85,-1704.08">
        <request index="0" response="000" foes="000" cont="0"/>
        <request index="1" response="000" foes="000" cont="0"/>
        <request index="2" response="000" foes="000" cont="0"/>
    </junction>
    <junction id="gneJ9" type="priority" x="-1707.00" y="-1000.00" incLanes="gneE8_0 gneE8_1 gneE8_2" intLanes=":gneJ9_0_0 :gneJ9_1_0 :gneJ9_2_0" shape="-1706.95,-995.92 -1697.15,-995.92 -1704.08,-1002.85">
        <request index="0" response="000" foes="000" cont="0"/>
        <request index="1" response="000" foes="000" cont="0"/>
        <request index="2" response="000" foes="000" cont="0"/>
    </junction>

    <connection from="edge1" to="edge1.666" fromLane="0" toLane="0" via=":gneJ11_0_0" dir="r" state="M"/>
    <connection from="edge1" to="edge1.666" fromLane="1" toLane="1" via=":gneJ11_1_0" dir="r" state="M"/>
    <connection from="edge1" to="edge1.666" fromLane="2" toLane="2" via=":gneJ11_2_0" dir="r" state="M"/>
    <connection from="edge1.1059" to="edge1.93" fromLane="0" toLane="0" via=":gneJ10_0_0" dir="s" state="M"/>
    <connection from="edge1.1059" to="edge1.93" fromLane="1" toLane="1" via=":gneJ10_0_1" dir="s" state="M"/>
    <connection from="edge1.1059" to="edge1.93" fromLane="2" toLane="2" via=":gneJ10_0_2" dir="s" state="M"/>
    <connection from="edge1.666" to="edge1.1059" fromLane="0" toLane="0" via=":gneJ12_0_0" dir="r" state="M"/>
    <connection from="edge1.666" to="edge1.1059" fromLane="1" toLane="1" via=":gneJ12_1_0" dir="r" state="M"/>
    <connection from="edge1.666" to="edge1.1059" fromLane="2" toLane="2" via=":gneJ12_2_0" dir="r" state="M"/>
    <connection from="edge1.93" to="gneE1" fromLane="0" toLane="0" via=":gneJ1_0_0" dir="r" state="M"/>
    <connection from="edge1.93" to="gneE1" fromLane="1" toLane="1" via=":gneJ1_1_0" dir="r" state="M"/>
    <connection from="edge1.93" to="gneE1" fromLane="2" toLane="2" via=":gneJ1_2_0" dir="r" state="M"/>
    <connection from="edge2" to="gneE7" fromLane="0" toLane="0" via=":gneJ7_0_0" dir="s" state="M"/>
    <connection from="edge2" to="gneE7" fromLane="1" toLane="1" via=":gneJ7_0_1" dir="s" state="M"/>
    <connection from="edge2" to="gneE7" fromLane="2" toLane="2" via=":gneJ7_0_2" dir="s" state="M"/>
    <connection from="gneE1" to="gneE2" fromLane="0" toLane="0" via=":gneJ2_0_0" dir="r" state="M"/>
    <connection from="gneE1" to="gneE2" fromLane="1" toLane="1" via=":gneJ2_1_0" dir="r" state="M"/>
    <connection from="gneE1" to="gneE2" fromLane="2" toLane="2" via=":gneJ2_2_0" dir="r" state="M"/>
    <connection from="gneE2" to="gneE3" fromLane="0" toLane="0" via=":gneJ3_0_0" dir="s" state="M"/>
    <connection from="gneE2" to="gneE3" fromLane="1" toLane="1" via=":gneJ3_0_1" dir="s" state="M"/>
    <connection from="gneE2" to="gneE3" fromLane="2" toLane="2" via=":gneJ3_0_2" dir="s" state="M"/>
    <connection from="gneE3" to="gneE5" fromLane="0" toLane="0" via=":gneJ4_0_0" dir="r" state="M"/>
    <connection from="gneE3" to="gneE5" fromLane="1" toLane="1" via=":gneJ4_1_0" dir="r" state="M"/>
    <connection from="gneE3" to="gneE5" fromLane="2" toLane="2" via=":gneJ4_2_0" dir="r" state="M"/>
    <connection from="gneE5" to="edge2" fromLane="0" toLane="0" via=":gneJ6_0_0" dir="r" state="M"/>
    <connection from="gneE5" to="edge2" fromLane="1" toLane="1" via=":gneJ6_1_0" dir="r" state="M"/>
    <connection from="gneE5" to="edge2" fromLane="2" toLane="2" via=":gneJ6_2_0" dir="r" state="M"/>
    <connection from="gneE7" to="gneE8" fromLane="0" toLane="0" via=":gneJ8_0_0" dir="r" state="M"/>
    <connection from="gneE7" to="gneE8" fromLane="1" toLane="1" via=":gneJ8_1_0" dir="r" state="M"/>
    <connection from="gneE7" to="gneE8" fromLane="2" toLane="2" via=":gneJ8_2_0" dir="r" state="M"/>
    <connection from="gneE8" to="gneE9" fromLane="0" toLane="0" via=":gneJ9_0_0" dir="r" state="M"/>
    <connection from="gneE8" to="gneE9" fromLane="1" toLane="1" via=":gneJ9_1_0" dir="r" state="M"/>
    <connection from="gneE8" to="gneE9" fromLane="2" toLane="2" via=":gneJ9_2_0" dir="r" state="M"/>
    <connection from="gneE9" to="edge1" fromLane="0" toLane="0" via=":gneJ0_0_0" dir="s" state="M"/>
    <connection from="gneE9" to="edge1" fromLane="1" toLane="1" via=":gneJ0_0_1" dir="s" state="M"/>
    <connection from="gneE9" to="edge1" fromLane="2" toLane="2" via=":gneJ0_0_2" dir="s" state="M"/>

    <connection from=":gneJ0_0" to="edge1" fromLane="0" toLane="0" dir="s" state="M"/>
    <connection from=":gneJ0_0" to="edge1" fromLane="1" toLane="1" dir="s" state="M"/>
    <connection from=":gneJ0_0" to="edge1" fromLane="2" toLane="2" dir="s" state="M"/>
    <connection from=":gneJ1_0" to="gneE1" fromLane="0" toLane="0" dir="r" state="M"/>
    <connection from=":gneJ1_1" to="gneE1" fromLane="0" toLane="1" dir="r" state="M"/>
    <connection from=":gneJ1_2" to="gneE1" fromLane="0" toLane="2" dir="r" state="M"/>
    <connection from=":gneJ10_0" to="edge1.93" fromLane="0" toLane="0" dir="s" state="M"/>
    <connection from=":gneJ10_0" to="edge1.93" fromLane="1" toLane="1" dir="s" state="M"/>
    <connection from=":gneJ10_0" to="edge1.93" fromLane="2" toLane="2" dir="s" state="M"/>
    <connection from=":gneJ11_0" to="edge1.666" fromLane="0" toLane="0" dir="r" state="M"/>
    <connection from=":gneJ11_1" to="edge1.666" fromLane="0" toLane="1" dir="r" state="M"/>
    <connection from=":gneJ11_2" to="edge1.666" fromLane="0" toLane="2" dir="r" state="M"/>
    <connection from=":gneJ12_0" to="edge1.1059" fromLane="0" toLane="0" dir="r" state="M"/>
    <connection from=":gneJ12_1" to="edge1.1059" fromLane="0" toLane="1" dir="r" state="M"/>
    <connection from=":gneJ12_2" to="edge1.1059" fromLane="0" toLane="2" dir="r" state="M"/>
    <connection from=":gneJ2_0" to="gneE2" fromLane="0" toLane="0" dir="r" state="M"/>
    <connection from=":gneJ2_1" to="gneE2" fromLane="0" toLane="1" dir="r" state="M"/>
    <connection from=":gneJ2_2" to="gneE2" fromLane="0" toLane="2" dir="r" state="M"/>
    <connection from=":gneJ3_0" to="gneE3" fromLane="0" toLane="0" dir="s" state="M"/>
    <connection from=":gneJ3_0" to="gneE3" fromLane="1" toLane="1" dir="s" state="M"/>
    <connection from=":gneJ3_0" to="gneE3" fromLane="2" toLane="2" dir="s" state="M"/>
    <connection from=":gneJ4_0" to="gneE5" fromLane="0" toLane="0" dir="r" state="M"/>
    <connection from=":gneJ4_1" to="gneE5" fromLane="0" toLane="1" dir="r" state="M"/>
    <connection from=":gneJ4_2" to="gneE5" fromLane="0" toLane="2" dir="r" state="M"/>
    <connection from=":gneJ6_0" to="edge2" fromLane="0" toLane="0" dir="r" state="M"/>
    <connection from=":gneJ6_1" to="edge2" fromLane="0" toLane="1" dir="r" state="M"/>
    <connection from=":gneJ6_2" to="edge2" fromLane="0" toLane="2" dir="r" state="M"/>
    <connection from=":gneJ7_0" to="gneE7" fromLane="0" toLane="0" dir="s" state="M"/>
    <connection from=":gneJ7_0" to="gneE7" fromLane="1" toLane="1" dir="s" state="M"/>
    <connection from=":gneJ7_0" to="gneE7" fromLane="2" toLane="2" dir="s" state="M"/>
    <connection from=":gneJ8_0" to="gneE8" fromLane="0" toLane="0" dir="r" state="M"/>
    <connection from=":gneJ8_1" to="gneE8" fromLane="0" toLane="1" dir="r" state="M"/>
    <connection from=":gneJ8_2" to="gneE8" fromLane="0" toLane="2" dir="r" state="M"/>
    <connection from=":gneJ9_0" to="gneE9" fromLane="0" toLane="0" dir="r" state="M"/>
    <connection from=":gneJ9_1" to="gneE9" fromLane="0" toLane="1" dir="r" state="M"/>
    <connection from=":gneJ9_2" to="gneE9" fromLane="0" toLane="2" dir="r" state="M"/>

</net>
